voltage-tiling/data/p13u_violations/p13uhs22_1247--p13udt4524/Lines.dss
New Line.l(r:p13udt4524lv-p13ulv10012) Units=km Length=0.0131581 bus1=p13udt4524lv.1.2 bus2=p13ulv10012.1.2 switch=n enabled=y phases=2 Linecode=1P_UG_AL_1/0_Brenau_2

New Line.l(r:p13udm19529-p13ulv10013) Units=km Length=0.0131818 bus1=p13udm19529.1.2 bus2=p13ulv10013.1.2 switch=n enabled=y phases=2 Linecode=1P_UG_AL_1/0_Brenau_2

New Line.l(r:p13udm19531-p13ulv93147) Units=km Length=0.0141749 bus1=p13udm19531.1.2 bus2=p13ulv93147.1.2 switch=n enabled=y phases=2 Linecode=1P_UG_AL_4/0_Sweetbriar_2

New Line.l(r:p13udm19529-p13udm19531) Units=km Length=0.00924005 bus1=p13udm19529.1.2 bus2=p13udm19531.1.2 switch=n enabled=y phases=2 Linecode=1P_UG_AL_4/0_Sweetbriar_2

New Line.l(r:p13udm19529-p13udt4524lv) Units=km Length=0.00924005 bus1=p13udt4524lv.1.2 bus2=p13udm19529.1.2 switch=n enabled=y phases=2 Linecode=1P_UG_AL_4/0_Sweetbriar_2

New Line.l(r:p13udm19532-p13ulv93213) Units=km Length=0.0132412 bus1=p13udm19532.1.2 bus2=p13ulv93213.1.2 switch=n enabled=y phases=2 Linecode=1P_UG_AL_1/0_Brenau_2

New Line.l(r:p13udm19530-p13ulv10018) Units=km Length=0.012356 bus1=p13udm19530.1.2 bus2=p13ulv10018.1.2 switch=n enabled=y phases=2 Linecode=1P_UG_AL_1/0_Brenau_2

New Line.l(r:p13udm19530-p13udm19532) Units=km Length=0.0375961 bus1=p13udm19532.1.2 bus2=p13udm19530.1.2 switch=n enabled=y phases=2 Linecode=1P_UG_AL_1/0_Brenau_2

New Line.l(r:p13udm19532-p13udt4524lv) Units=km Length=0.00923408 bus1=p13udt4524lv.1.2 bus2=p13udm19532.1.2 switch=n enabled=y phases=2 Linecode=1P_UG_AL_2/0_Converse_2

New Line.l(r:p13udm19533-p13ulv10016) Units=km Length=0.0123205 bus1=p13udm19533.1.2 bus2=p13ulv10016.1.2 switch=n enabled=y phases=2 Linecode=1P_UG_AL_1/0_Brenau_2

New Line.l(r:p13udm19533-p13ulv93202) Units=km Length=0.0122212 bus1=p13udm19533.1.2 bus2=p13ulv93202.1.2 switch=n enabled=y phases=2 Linecode=1P_UG_AL_1/0_Brenau_2

New Line.l(r:p13udm19533-p13ulv93233) Units=km Length=0.013319700000000002 bus1=p13udm19533.1.2 bus2=p13ulv93233.1.2 switch=n enabled=y phases=2 Linecode=1P_UG_AL_1/0_Brenau_2

New Line.l(r:p13udm19534-p13ulv10017) Units=km Length=0.0124992 bus1=p13udm19534.1.2 bus2=p13ulv10017.1.2 switch=n enabled=y phases=2 Linecode=1P_UG_AL_1/0_Brenau_2

New Line.l(r:p13udm19533-p13udm19534) Units=km Length=0.009456 bus1=p13udm19533.1.2 bus2=p13udm19534.1.2 switch=n enabled=y phases=2 Linecode=1P_UG_AL_1/0_Brenau_2

New Line.l(r:p13udm19533-p13udt4525lv) Units=km Length=0.00945 bus1=p13udt4525lv.1.2 bus2=p13udm19533.1.2 switch=n enabled=y phases=2 Linecode=1P_UG_AL_4/0_Sweetbriar_2

New Line.l(r:p13udm19536-p13ulv10038) Units=km Length=0.0104485 bus1=p13udm19536.1.2 bus2=p13ulv10038.1.2 switch=n enabled=y phases=2 Linecode=1P_UG_AL_1/0_Brenau_2

New Line.l(r:p13udm19535-p13ulv10019) Units=km Length=0.0122121 bus1=p13udm19535.1.2 bus2=p13ulv10019.1.2 switch=n enabled=y phases=2 Linecode=1P_UG_AL_1/0_Brenau_2

New Line.l(r:p13udm19535-p13ulv10039) Units=km Length=0.0110102 bus1=p13udm19535.1.2 bus2=p13ulv10039.1.2 switch=n enabled=y phases=2 Linecode=1P_UG_AL_1/0_Brenau_2

New Line.l(r:p13udm19535-p13udm19536) Units=km Length=0.017684 bus1=p13udm19536.1.2 bus2=p13udm19535.1.2 switch=n enabled=y phases=2 Linecode=1P_UG_AL_1/0_Brenau_2

New Line.l(r:p13udm19536-p13udt4525lv) Units=km Length=0.00945 bus1=p13udt4525lv.1.2 bus2=p13udm19536.1.2 switch=n enabled=y phases=2 Linecode=1P_UG_AL_2/0_Converse_2

New Line.l(r:p13udt4534lv-p13ulv93166) Units=km Length=0.012642500000000001 bus1=p13udt4534lv.1.2 bus2=p13ulv93166.1.2 switch=n enabled=y phases=2 Linecode=1P_UG_AL_1/0_Brenau_2

New Line.l(r:p13udm19584-p13ulv10040) Units=km Length=0.009908960000000001 bus1=p13udm19584.1.2 bus2=p13ulv10040.1.2 switch=n enabled=y phases=2 Linecode=1P_UG_AL_1/0_Brenau_2

New Line.l(r:p13udm19584-p13ulv93186) Units=km Length=0.0139763 bus1=p13udm19584.1.2 bus2=p13ulv93186.1.2 switch=n enabled=y phases=2 Linecode=1P_UG_AL_1/0_Brenau_2

New Line.l(r:p13udm19585-p13ulv10041) Units=km Length=0.0146667 bus1=p13udm19585.1.2 bus2=p13ulv10041.1.2 switch=n enabled=y phases=2 Linecode=1P_UG_AL_1/0_Brenau_2

New Line.l(r:p13udm19585-p13ulv10042) Units=km Length=0.0126772 bus1=p13udm19585.1.2 bus2=p13ulv10042.1.2 switch=n enabled=y phases=2 Linecode=1P_UG_AL_1/0_Brenau_2

New Line.l(r:p13udm19587-p13ulv10043) Units=km Length=0.012992000000000002 bus1=p13udm19587.1.2 bus2=p13ulv10043.1.2 switch=n enabled=y phases=2 Linecode=1P_UG_AL_1/0_Brenau_2

New Line.l(r:p13udm19587-p13ulv93179) Units=km Length=0.0129712 bus1=p13udm19587.1.2 bus2=p13ulv93179.1.2 switch=n enabled=y phases=2 Linecode=1P_UG_AL_1/0_Brenau_2

New Line.l(r:p13udm19585-p13udm19587) Units=km Length=0.00983407 bus1=p13udm19585.1.2 bus2=p13udm19587.1.2 switch=n enabled=y phases=2 Linecode=1P_UG_AL_1/0_Brenau_2

New Line.l(r:p13udm19584-p13udm19585) Units=km Length=0.00983407 bus1=p13udm19584.1.2 bus2=p13udm19585.1.2 switch=n enabled=y phases=2 Linecode=1P_UG_AL_4/0_Sweetbriar_2

New Line.l(r:p13udm19584-p13udt4534lv) Units=km Length=0.00983407 bus1=p13udt4534lv.1.2 bus2=p13udm19584.1.2 switch=n enabled=y phases=2 Linecode=1P_UG_AL_4/0_Sweetbriar_2

New Line.l(r:p13udm19589-p13ulv75155) Units=km Length=0.0131051 bus1=p13udm19589.1.2 bus2=p13ulv75155.1.2 switch=n enabled=y phases=2 Linecode=1P_UG_AL_1/0_Brenau_2

New Line.l(r:p13udm19589-p13ulv94814) Units=km Length=0.010288700000000001 bus1=p13udm19589.1.2 bus2=p13ulv94814.1.2 switch=n enabled=y phases=2 Linecode=1P_UG_AL_1/0_Brenau_2

New Line.l(r:p13udm19588-p13ulv75144) Units=km Length=0.0357552 bus1=p13udm19588.1.2 bus2=p13ulv75144.1.2 switch=n enabled=y phases=2 Linecode=1P_UG_AL_1/0_Brenau_2

New Line.l(r:p13udm19588-p13udm19589) Units=km Length=0.00984005 bus1=p13udm19589.1.2 bus2=p13udm19588.1.2 switch=n enabled=y phases=2 Linecode=1P_UG_AL_1/0_Brenau_2

New Line.l(r:p13udm19589-p13udt4534lv) Units=km Length=0.0491844 bus1=p13udt4534lv.1.2 bus2=p13udm19589.1.2 switch=n enabled=y phases=2 Linecode=1P_UG_AL_2/0_Converse_2

New Line.l(r:p13udt4535lv-p13ulv10046) Units=km Length=0.0130453 bus1=p13udt4535lv.1.2 bus2=p13ulv10046.1.2 switch=n enabled=y phases=2 Linecode=1P_UG_AL_1/0_Brenau_2

New Line.l(r:p13udt4535lv-p13ulv93265) Units=km Length=0.0130352 bus1=p13udt4535lv.1.2 bus2=p13ulv93265.1.2 switch=n enabled=y phases=2 Linecode=1P_UG_AL_1/0_Brenau_2

New Line.l(r:p13udm19594-p13ulv10044) Units=km Length=0.0136859 bus1=p13udm19594.1.2 bus2=p13ulv10044.1.2 switch=n enabled=y phases=2 Linecode=1P_UG_AL_1/0_Brenau_2

New Line.l(r:p13udm19594-p13udt4535lv) Units=km Length=0.00907001 bus1=p13udt4535lv.1.2 bus2=p13udm19594.1.2 switch=n enabled=y phases=2 Linecode=1P_UG_AL_1/0_Brenau_2

New Line.l(r:p13udm19596-p13ulv10047) Units=km Length=0.0131395 bus1=p13udm19596.1.2 bus2=p13ulv10047.1.2 switch=n enabled=y phases=2 Linecode=1P_UG_AL_2/0_Converse_2

New Line.l(r:p13udm19596-p13ulv93241) Units=km Length=0.013400200000000001 bus1=p13udm19596.1.2 bus2=p13ulv93241.1.2 switch=n enabled=y phases=2 Linecode=1P_UG_AL_2/0_Converse_2

New Line.l(r:p13udm19596-p13udt4535lv) Units=km Length=0.009064 bus1=p13udt4535lv.1.2 bus2=p13udm19596.1.2 switch=n enabled=y phases=2 Linecode=1P_UG_AL_4/0_Sweetbriar_2

New Line.l(r:p13udt4536lv-p13ulv10045) Units=km Length=0.0140338 bus1=p13udt4536lv.1.2 bus2=p13ulv10045.1.2 switch=n enabled=y phases=2 Linecode=1P_UG_AL_1/0_Brenau_2

New Line.l(r:p13udt4536lv-p13ulv10049) Units=km Length=0.0136719 bus1=p13udt4536lv.1.2 bus2=p13ulv10049.1.2 switch=n enabled=y phases=2 Linecode=1P_UG_AL_1/0_Brenau_2

New Line.l(r:p13udm19600-p13ulv10048) Units=km Length=0.0125755 bus1=p13udm19600.1.2 bus2=p13ulv10048.1.2 switch=n enabled=y phases=2 Linecode=1P_UG_AL_1/0_Brenau_2

New Line.l(r:p13udm19600-p13ulv93270) Units=km Length=0.0132383 bus1=p13udm19600.1.2 bus2=p13ulv93270.1.2 switch=n enabled=y phases=2 Linecode=1P_UG_AL_1/0_Brenau_2

New Line.l(r:p13udm19600-p13udt4536lv) Units=km Length=0.00907001 bus1=p13udt4536lv.1.2 bus2=p13udm19600.1.2 switch=n enabled=y phases=2 Linecode=1P_UG_AL_1/0_Brenau_2

New Line.l(r:p13udm19603-p13ulv93285) Units=km Length=0.0125691 bus1=p13udm19603.1.2 bus2=p13ulv93285.1.2 switch=n enabled=y phases=2 Linecode=1P_UG_AL_1/0_Brenau_2

New Line.l(r:p13udm19603-p13udt4536lv) Units=km Length=0.00907001 bus1=p13udt4536lv.1.2 bus2=p13udm19603.1.2 switch=n enabled=y phases=2 Linecode=1P_UG_AL_1/0_Brenau_2

New Line.l(r:p13udm19618-p13ulv10052) Units=km Length=0.0106591 bus1=p13udm19618.1.2 bus2=p13ulv10052.1.2 switch=n enabled=y phases=2 Linecode=1P_UG_AL_1/0_Brenau_2

New Line.l(r:p13udm19618-p13ulv93174) Units=km Length=0.011654 bus1=p13udm19618.1.2 bus2=p13ulv93174.1.2 switch=n enabled=y phases=2 Linecode=1P_UG_AL_1/0_Brenau_2

New Line.l(r:p13udm19621-p13ulv93177) Units=km Length=0.00987526 bus1=p13udm19621.1.2 bus2=p13ulv93177.1.2 switch=n enabled=y phases=2 Linecode=1P_UG_AL_1/0_Brenau_2

New Line.l(r:p13udm19618-p13udm19621) Units=km Length=0.0188154 bus1=p13udm19618.1.2 bus2=p13udm19621.1.2 switch=n enabled=y phases=2 Linecode=1P_UG_AL_1/0_Brenau_2

New Line.l(r:p13udm19618-p13udt4539lv) Units=km Length=0.0188285 bus1=p13udt4539lv.1.2 bus2=p13udm19618.1.2 switch=n enabled=y phases=2 Linecode=1P_UG_AL_4/0_Sweetbriar_2

New Line.l(r:p13udm19619-p13ulv88503) Units=km Length=0.012373900000000002 bus1=p13udm19619.1.2 bus2=p13ulv88503.1.2 switch=n enabled=y phases=2 Linecode=1P_UG_AL_1/0_Brenau_2

New Line.l(r:p13udm19622-p13ulv100379) Units=km Length=0.0123225 bus1=p13udm19622.1.2 bus2=p13ulv100379.1.2 switch=n enabled=y phases=2 Linecode=1P_UG_AL_1/0_Brenau_2

New Line.l(r:p13udm19619-p13udm19622) Units=km Length=0.0188193 bus1=p13udm19619.1.2 bus2=p13udm19622.1.2 switch=n enabled=y phases=2 Linecode=1P_UG_AL_1/0_Brenau_2

New Line.l(r:p13udm19619-p13udt4539lv) Units=km Length=0.0282409 bus1=p13udt4539lv.1.2 bus2=p13udm19619.1.2 switch=n enabled=y phases=2 Linecode=1P_UG_AL_2/0_Converse_2

New Line.l(r:p13udt4540lv-p13ulv10053) Units=km Length=0.0126167 bus1=p13udt4540lv.1.2 bus2=p13ulv10053.1.2 switch=n enabled=y phases=2 Linecode=1P_UG_AL_1/0_Brenau_2

New Line.l(r:p13udt4540lv-p13ulv10078) Units=km Length=0.0126062 bus1=p13udt4540lv.1.2 bus2=p13ulv10078.1.2 switch=n enabled=y phases=2 Linecode=1P_UG_AL_1/0_Brenau_2

New Line.l(r:p13udm19624-p13ulv10054) Units=km Length=0.011743600000000002 bus1=p13udm19624.1.2 bus2=p13ulv10054.1.2 switch=n enabled=y phases=2 Linecode=1P_UG_AL_1/0_Brenau_2

New Line.l(r:p13udm19627-p13ulv91513) Units=km Length=0.0111779 bus1=p13udm19627.1.2 bus2=p13ulv91513.1.2 switch=n enabled=y phases=2 Linecode=1P_UG_AL_1/0_Brenau_2

New Line.l(r:p13udm19629-p13ulv91520) Units=km Length=0.0115128 bus1=p13udm19629.1.2 bus2=p13ulv91520.1.2 switch=n enabled=y phases=2 Linecode=1P_UG_AL_1/0_Brenau_2

New Line.l(r:p13udm19627-p13udm19629) Units=km Length=0.00914947 bus1=p13udm19627.1.2 bus2=p13udm19629.1.2 switch=n enabled=y phases=2 Linecode=1P_UG_AL_1/0_Brenau_2

New Line.l(r:p13udm19624-p13udm19627) Units=km Length=0.00914027 bus1=p13udm19624.1.2 bus2=p13udm19627.1.2 switch=n enabled=y phases=2 Linecode=1P_UG_AL_1/0_Brenau_2

New Line.l(r:p13udm19624-p13udt4540lv) Units=km Length=0.00914947 bus1=p13udt4540lv.1.2 bus2=p13udm19624.1.2 switch=n enabled=y phases=2 Linecode=1P_UG_AL_4/0_Sweetbriar_2

New Line.l(r:p13udm19626-p13ulv10079) Units=km Length=0.0120008 bus1=p13udm19626.1.2 bus2=p13ulv10079.1.2 switch=n enabled=y phases=2 Linecode=1P_UG_AL_1/0_Brenau_2

New Line.l(r:p13udm19626-p13ulv91514) Units=km Length=0.00980776 bus1=p13udm19626.1.2 bus2=p13ulv91514.1.2 switch=n enabled=y phases=2 Linecode=1P_UG_AL_4/0_Sweetbriar_2

New Line.l(r:p13udm19626-p13udt4540lv) Units=km Length=0.00914027 bus1=p13udt4540lv.1.2 bus2=p13udm19626.1.2 switch=n enabled=y phases=2 Linecode=1P_UG_AL_4/0_Sweetbriar_2

New Line.l(r:p13udm19631-p13ulv10056) Units=km Length=0.0126848 bus1=p13udm19631.1.2 bus2=p13ulv10056.1.2 switch=n enabled=y phases=2 Linecode=1P_UG_AL_1/0_Brenau_2

New Line.l(r:p13udm19631-p13ulv91415) Units=km Length=0.009785140000000001 bus1=p13udm19631.1.2 bus2=p13ulv91415.1.2 switch=n enabled=y phases=2 Linecode=1P_UG_AL_1/0_Brenau_2

New Line.l(r:p13udm19631-p13udt4542lv) Units=km Length=0.04508740000000001 bus1=p13udt4542lv.1.2 bus2=p13udm19631.1.2 switch=n enabled=y phases=2 Linecode=1P_UG_AL_1/0_Brenau_2

New Line.l(r:p13udm19633-p13ulv93284) Units=km Length=0.0103716 bus1=p13udm19633.1.2 bus2=p13ulv93284.1.2 switch=n enabled=y phases=2 Linecode=1P_UG_AL_1/0_Brenau_2

New Line.l(r:p13udm19634-p13ulv93309) Units=km Length=0.00840489 bus1=p13udm19634.1.2 bus2=p13ulv93309.1.2 switch=n enabled=y phases=2 Linecode=1P_UG_AL_4/0_Sweetbriar_2

New Line.l(r:p13udm19633-p13udm19634) Units=km Length=0.0084565 bus1=p13udm19633.1.2 bus2=p13udm19634.1.2 switch=n enabled=y phases=2 Linecode=1P_UG_AL_4/0_Sweetbriar_2

New Line.l(r:p13udm19633-p13udt4542lv) Units=km Length=0.00844844 bus1=p13udt4542lv.1.2 bus2=p13udm19633.1.2 switch=n enabled=y phases=2 Linecode=1P_UG_AL_4/0_Sweetbriar_2

New Line.l(r:p13udt4543lv-p13ulv91414) Units=km Length=0.0126224 bus1=p13udt4543lv.1.2 bus2=p13ulv91414.1.2 switch=n enabled=y phases=2 Linecode=1P_UG_AL_1/0_Brenau_2

New Line.l(r:p13udm19635-p13ulv10057) Units=km Length=0.009446320000000001 bus1=p13udm19635.1.2 bus2=p13ulv10057.1.2 switch=n enabled=y phases=2 Linecode=1P_UG_AL_1/0_Brenau_2

New Line.l(r:p13udm19640-p13ulv93333) Units=km Length=0.0126474 bus1=p13udm19640.1.2 bus2=p13ulv93333.1.2 switch=n enabled=y phases=2 Linecode=1P_UG_AL_1/0_Brenau_2

New Line.l(r:p13udm19635-p13udm19640) Units=km Length=0.00769603 bus1=p13udm19635.1.2 bus2=p13udm19640.1.2 switch=n enabled=y phases=2 Linecode=1P_UG_AL_1/0_Brenau_2

New Line.l(r:p13udm19635-p13udt4543lv) Units=km Length=0.00971025 bus1=p13udt4543lv.1.2 bus2=p13udm19635.1.2 switch=n enabled=y phases=2 Linecode=1P_UG_AL_1/0_Brenau_2

New Line.l(r:p13udm19637-p13ulv91417) Units=km Length=0.0109164 bus1=p13udm19637.1.2 bus2=p13ulv91417.1.2 switch=n enabled=y phases=2 Linecode=1P_UG_AL_1/0_Brenau_2

New Line.l(r:p13udm19637-p13ulv91461) Units=km Length=0.010175000000000002 bus1=p13udm19637.1.2 bus2=p13ulv91461.1.2 switch=n enabled=y phases=2 Linecode=1P_UG_AL_1/0_Brenau_2

New Line.l(r:p13udm19638-p13ulv91428) Units=km Length=0.010001 bus1=p13udm19638.1.2 bus2=p13ulv91428.1.2 switch=n enabled=y phases=2 Linecode=1P_UG_AL_1/0_Brenau_2

New Line.l(r:p13udm19637-p13udm19638) Units=km Length=0.0385249 bus1=p13udm19637.1.2 bus2=p13udm19638.1.2 switch=n enabled=y phases=2 Linecode=1P_UG_AL_1/0_Brenau_2

New Line.l(r:p13udm19637-p13udt4543lv) Units=km Length=0.00971025 bus1=p13udt4543lv.1.2 bus2=p13udm19637.1.2 switch=n enabled=y phases=2 Linecode=1P_UG_AL_4/0_Sweetbriar_2

New Line.l(r:p13udt4544lv-p13ulv10059) Units=km Length=0.0137707 bus1=p13udt4544lv.1.2 bus2=p13ulv10059.1.2 switch=n enabled=y phases=2 Linecode=1P_UG_AL_1/0_Brenau_2

New Line.l(r:p13udm19642-p13ulv10060) Units=km Length=0.0135127 bus1=p13udm19642.1.2 bus2=p13ulv10060.1.2 switch=n enabled=y phases=2 Linecode=1P_UG_AL_1/0_Brenau_2

New Line.l(r:p13udm19642-p13ulv91526) Units=km Length=0.0162451 bus1=p13udm19642.1.2 bus2=p13ulv91526.1.2 switch=n enabled=y phases=2 Linecode=1P_UG_AL_1/0_Brenau_2

New Line.l(r:p13udm19642-p13udt4544lv) Units=km Length=0.00921206 bus1=p13udt4544lv.1.2 bus2=p13udm19642.1.2 switch=n enabled=y phases=2 Linecode=1P_UG_AL_2/0_Converse_2

New Line.l(r:p13udm19643-p13ulv91502) Units=km Length=0.0140518 bus1=p13udm19643.1.2 bus2=p13ulv91502.1.2 switch=n enabled=y phases=2 Linecode=1P_UG_AL_1/0_Brenau_2

New Line.l(r:p13udm19643-p13udt4544lv) Units=km Length=0.00921413 bus1=p13udt4544lv.1.2 bus2=p13udm19643.1.2 switch=n enabled=y phases=2 Linecode=1P_UG_AL_1/0_Brenau_2

New Line.l(r:p13udt4545lv-p13ulv91518) Units=km Length=0.012531 bus1=p13udt4545lv.1.2 bus2=p13ulv91518.1.2 switch=n enabled=y phases=2 Linecode=1P_UG_AL_1/0_Brenau_2

New Line.l(r:p13udt4545lv-p13ulv91545) Units=km Length=0.0131984 bus1=p13udt4545lv.1.2 bus2=p13ulv91545.1.2 switch=n enabled=y phases=2 Linecode=1P_UG_AL_1/0_Brenau_2

New Line.l(r:p13udm19646-p13ulv10062) Units=km Length=0.012359 bus1=p13udm19646.1.2 bus2=p13ulv10062.1.2 switch=n enabled=y phases=2 Linecode=1P_UG_AL_2/0_Converse_2

New Line.l(r:p13udm19645-p13ulv10061) Units=km Length=0.011704 bus1=p13udm19645.1.2 bus2=p13ulv10061.1.2 switch=n enabled=y phases=2 Linecode=1P_UG_AL_1/0_Brenau_2

New Line.l(r:p13udm19645-p13ulv91535) Units=km Length=0.015233500000000002 bus1=p13udm19645.1.2 bus2=p13ulv91535.1.2 switch=n enabled=y phases=2 Linecode=1P_UG_AL_1/0_Brenau_2

New Line.l(r:p13udm19645-p13udm19646) Units=km Length=0.00921413 bus1=p13udm19646.1.2 bus2=p13udm19645.1.2 switch=n enabled=y phases=2 Linecode=1P_UG_AL_2/0_Converse_2

New Line.l(r:p13udm19646-p13udt4545lv) Units=km Length=0.0092061 bus1=p13udt4545lv.1.2 bus2=p13udm19646.1.2 switch=n enabled=y phases=2 Linecode=1P_UG_AL_4/0_Sweetbriar_2

New Line.l(r:p13udm19650-p13ulv91580) Units=km Length=0.0117394 bus1=p13udm19650.1.2 bus2=p13ulv91580.1.2 switch=n enabled=y phases=2 Linecode=1P_UG_AL_1/0_Brenau_2

New Line.l(r:p13udm19650-p13udt4545lv) Units=km Length=0.0960031 bus1=p13udt4545lv.1.2 bus2=p13udm19650.1.2 switch=n enabled=y phases=2 Linecode=1P_UG_AL_1/0_Brenau_2

New Line.l(r:p13udt4546lv-p13ulv10064) Units=km Length=0.0156691 bus1=p13udt4546lv.1.2 bus2=p13ulv10064.1.2 switch=n enabled=y phases=2 Linecode=1P_UG_AL_1/0_Brenau_2

New Line.l(r:p13udt4546lv-p13ulv91552) Units=km Length=0.00915614 bus1=p13udt4546lv.1.2 bus2=p13ulv91552.1.2 switch=n enabled=y phases=2 Linecode=1P_UG_AL_1/0_Brenau_2

New Line.l(r:p13udt4546lv-p13ulv91574) Units=km Length=0.0311245 bus1=p13udt4546lv.1.2 bus2=p13ulv91574.1.2 switch=n enabled=y phases=2 Linecode=1P_UG_AL_1/0_Brenau_2

New Line.l(r:p13udm19651-p13ulv10063) Units=km Length=0.0162265 bus1=p13udm19651.1.2 bus2=p13ulv10063.1.2 switch=n enabled=y phases=2 Linecode=1P_UG_AL_1/0_Brenau_2

New Line.l(r:p13udm19651-p13udt4546lv) Units=km Length=0.00982689 bus1=p13udt4546lv.1.2 bus2=p13udm19651.1.2 switch=n enabled=y phases=2 Linecode=1P_UG_AL_1/0_Brenau_2

New Line.l(r:p13udm19653-p13ulv10065) Units=km Length=0.0124923 bus1=p13udm19653.1.2 bus2=p13ulv10065.1.2 switch=n enabled=y phases=2 Linecode=1P_UG_AL_1/0_Brenau_2

New Line.l(r:p13udm19653-p13ulv91563) Units=km Length=0.00888851 bus1=p13udm19653.1.2 bus2=p13ulv91563.1.2 switch=n enabled=y phases=2 Linecode=1P_UG_AL_1/0_Brenau_2

New Line.l(r:p13udm19653-p13udt4546lv) Units=km Length=0.00982471 bus1=p13udt4546lv.1.2 bus2=p13udm19653.1.2 switch=n enabled=y phases=2 Linecode=1P_UG_AL_2/0_Converse_2

New Line.l(r:p13udt4549lv-p13ulv10070) Units=km Length=0.0142935 bus1=p13udt4549lv.1.2 bus2=p13ulv10070.1.2 switch=n enabled=y phases=2 Linecode=1P_UG_AL_1/0_Brenau_2

New Line.l(r:p13udm19667-p13ulv89692) Units=km Length=0.0118974 bus1=p13udm19667.1.2 bus2=p13ulv89692.1.2 switch=n enabled=y phases=2 Linecode=1P_UG_AL_1/0_Brenau_2

New Line.l(r:p13udm19667-p13ulv91604) Units=km Length=0.0139552 bus1=p13udm19667.1.2 bus2=p13ulv91604.1.2 switch=n enabled=y phases=2 Linecode=1P_UG_AL_1/0_Brenau_2

New Line.l(r:p13udm19667-p13udt4549lv) Units=km Length=0.00910922 bus1=p13udt4549lv.1.2 bus2=p13udm19667.1.2 switch=n enabled=y phases=2 Linecode=1P_UG_AL_1/0_Brenau_2

New Line.l(r:p13udm19668-p13ulv89699) Units=km Length=0.0116684 bus1=p13udm19668.1.2 bus2=p13ulv89699.1.2 switch=n enabled=y phases=2 Linecode=1P_UG_AL_1/0_Brenau_2

New Line.l(r:p13udm19665-p13ulv10069) Units=km Length=0.014068000000000002 bus1=p13udm19665.1.2 bus2=p13ulv10069.1.2 switch=n enabled=y phases=2 Linecode=1P_UG_AL_1/0_Brenau_2

New Line.l(r:p13udm19665-p13udm19668) Units=km Length=0.00911737 bus1=p13udm19668.1.2 bus2=p13udm19665.1.2 switch=n enabled=y phases=2 Linecode=1P_UG_AL_1/0_Brenau_2

New Line.l(r:p13udm19668-p13udt4549lv) Units=km Length=0.00911737 bus1=p13udt4549lv.1.2 bus2=p13udm19668.1.2 switch=n enabled=y phases=2 Linecode=1P_UG_AL_4/0_Sweetbriar_2

New Line.l(r:p13udt4551lv-p13ulv10074) Units=km Length=0.0132522 bus1=p13udt4551lv.1.2 bus2=p13ulv10074.1.2 switch=n enabled=y phases=2 Linecode=1P_UG_AL_1/0_Brenau_2

New Line.l(r:p13udt4551lv-p13ulv89691) Units=km Length=0.0151053 bus1=p13udt4551lv.1.2 bus2=p13ulv89691.1.2 switch=n enabled=y phases=2 Linecode=1P_UG_AL_1/0_Brenau_2

New Line.l(r:p13udm19674-p13ulv10073) Units=km Length=0.0149293 bus1=p13udm19674.1.2 bus2=p13ulv10073.1.2 switch=n enabled=y phases=2 Linecode=1P_UG_AL_1/0_Brenau_2

New Line.l(r:p13udm19674-p13ulv91600) Units=km Length=0.0136429 bus1=p13udm19674.1.2 bus2=p13ulv91600.1.2 switch=n enabled=y phases=2 Linecode=1P_UG_AL_1/0_Brenau_2

New Line.l(r:p13udm19674-p13udt4551lv) Units=km Length=0.0188414 bus1=p13udt4551lv.1.2 bus2=p13udm19674.1.2 switch=n enabled=y phases=2 Linecode=1P_UG_AL_4/0_Sweetbriar_2

New Line.l(r:p13udm19677-p13ulv89695) Units=km Length=0.0152742 bus1=p13udm19677.1.2 bus2=p13ulv89695.1.2 switch=n enabled=y phases=2 Linecode=1P_UG_AL_1/0_Brenau_2

New Line.l(r:p13udm19677-p13ulv89703) Units=km Length=0.0129551 bus1=p13udm19677.1.2 bus2=p13ulv89703.1.2 switch=n enabled=y phases=2 Linecode=1P_UG_AL_1/0_Brenau_2

New Line.l(r:p13udm19679-p13ulv89713) Units=km Length=0.013048 bus1=p13udm19679.1.2 bus2=p13ulv89713.1.2 switch=n enabled=y phases=2 Linecode=1P_UG_AL_1/0_Brenau_2

New Line.l(r:p13udm19677-p13udm19679) Units=km Length=0.0094255 bus1=p13udm19677.1.2 bus2=p13udm19679.1.2 switch=n enabled=y phases=2 Linecode=1P_UG_AL_1/0_Brenau_2

New Line.l(r:p13udm19677-p13udt4551lv) Units=km Length=0.0094255 bus1=p13udt4551lv.1.2 bus2=p13udm19677.1.2 switch=n enabled=y phases=2 Linecode=1P_UG_AL_4/0_Sweetbriar_2

New Line.l(r:p13udt4553lv-p13ulv10077) Units=km Length=0.00986444 bus1=p13udt4553lv.1.2 bus2=p13ulv10077.1.2 switch=n enabled=y phases=2 Linecode=1P_OH_AL_2/0_Rucina_2

New Line.l(r:p13udt4553lv-p13ulv10234) Units=km Length=0.0105559 bus1=p13udt4553lv.1.2 bus2=p13ulv10234.1.2 switch=n enabled=y phases=2 Linecode=1P_OH_AL_2/0_Rucina_2

New Line.l(r:p13udt4553lv-p13ulv10236) Units=km Length=0.0345309 bus1=p13udt4553lv.1.2 bus2=p13ulv10236.1.2 switch=n enabled=y phases=2 Linecode=1P_OH_AL_4/0_Zuzara_2

New Line.l(r:p13udm19682-p13ulv10076) Units=km Length=0.00976914 bus1=p13udm19682.1.2 bus2=p13ulv10076.1.2 switch=n enabled=y phases=2 Linecode=1P_OH_AL_2/0_Rucina_2

New Line.l(r:p13udm19682-p13udt4553lv) Units=km Length=0.0195872 bus1=p13udt4553lv.1.2 bus2=p13udm19682.1.2 switch=n enabled=y phases=2 Linecode=1P_OH_AL_2/0_Rucina_2

New Line.l(r:p13udt4554lv-p13ulv91571) Units=km Length=0.0113009 bus1=p13udt4554lv.1.2 bus2=p13ulv91571.1.2 switch=n enabled=y phases=2 Linecode=1P_UG_AL_4/0_Sweetbriar_2

New Line.l(r:p13udm19687-p13ulv10086) Units=km Length=0.009170440000000002 bus1=p13udm19687.1.2 bus2=p13ulv10086.1.2 switch=n enabled=y phases=2 Linecode=1P_UG_AL_1/0_Brenau_2

New Line.l(r:p13udm19686-p13ulv10080) Units=km Length=0.00806133 bus1=p13udm19686.1.2 bus2=p13ulv10080.1.2 switch=n enabled=y phases=2 Linecode=1P_UG_AL_1/0_Brenau_2

New Line.l(r:p13udm19686-p13udm19687) Units=km Length=0.00876733 bus1=p13udm19687.1.2 bus2=p13udm19686.1.2 switch=n enabled=y phases=2 Linecode=1P_UG_AL_1/0_Brenau_2

New Line.l(r:p13udm19687-p13udt4554lv) Units=km Length=0.008762080000000002 bus1=p13udt4554lv.1.2 bus2=p13udm19687.1.2 switch=n enabled=y phases=2 Linecode=1P_UG_AL_2/0_Converse_2

New Line.l(r:p13udm19688-p13ulv91546) Units=km Length=0.0119473 bus1=p13udm19688.1.2 bus2=p13ulv91546.1.2 switch=n enabled=y phases=2 Linecode=1P_UG_AL_1/0_Brenau_2

New Line.l(r:p13udm19688-p13udt4554lv) Units=km Length=0.00877127 bus1=p13udt4554lv.1.2 bus2=p13udm19688.1.2 switch=n enabled=y phases=2 Linecode=1P_UG_AL_1/0_Brenau_2

New Line.l(r:p13udt4555lv-p13ulv10083) Units=km Length=0.0344241 bus1=p13udt4555lv.1.2 bus2=p13ulv10083.1.2 switch=n enabled=y phases=2 Linecode=1P_UG_AL_1/0_Brenau_2

New Line.l(r:p13udt4555lv-p13ulv89728) Units=km Length=0.0133687 bus1=p13udt4555lv.1.2 bus2=p13ulv89728.1.2 switch=n enabled=y phases=2 Linecode=1P_UG_AL_1/0_Brenau_2

New Line.l(r:p13udm19690-p13ulv10081) Units=km Length=0.0158368 bus1=p13udm19690.1.2 bus2=p13ulv10081.1.2 switch=n enabled=y phases=2 Linecode=1P_UG_AL_1/0_Brenau_2

New Line.l(r:p13udm19690-p13udt4555lv) Units=km Length=0.0094255 bus1=p13udt4555lv.1.2 bus2=p13udm19690.1.2 switch=n enabled=y phases=2 Linecode=1P_UG_AL_1/0_Brenau_2

New Line.l(r:p13udm19691-p13ulv10082) Units=km Length=0.0342839 bus1=p13udm19691.1.2 bus2=p13ulv10082.1.2 switch=n enabled=y phases=2 Linecode=1P_UG_AL_1/0_Brenau_2

New Line.l(r:p13udm19691-p13ulv89735) Units=km Length=0.0106732 bus1=p13udm19691.1.2 bus2=p13ulv89735.1.2 switch=n enabled=y phases=2 Linecode=1P_UG_AL_2/0_Converse_2

New Line.l(r:p13udm19691-p13ulv89739) Units=km Length=0.0135656 bus1=p13udm19691.1.2 bus2=p13ulv89739.1.2 switch=n enabled=y phases=2 Linecode=1P_UG_AL_1/0_Brenau_2

New Line.l(r:p13udm19691-p13udt4555lv) Units=km Length=0.00942253 bus1=p13udt4555lv.1.2 bus2=p13udm19691.1.2 switch=n enabled=y phases=2 Linecode=1P_UG_AL_4/0_Sweetbriar_2

New Line.l(r:p13udt4556lv-p13ulv10084) Units=km Length=0.0118335 bus1=p13udt4556lv.1.2 bus2=p13ulv10084.1.2 switch=n enabled=y phases=2 Linecode=1P_UG_AL_1/0_Brenau_2

New Line.l(r:p13udt4556lv-p13ulv10087) Units=km Length=0.0136957 bus1=p13udt4556lv.1.2 bus2=p13ulv10087.1.2 switch=n enabled=y phases=2 Linecode=1P_UG_AL_4/0_Sweetbriar_2

New Line.l(r:p13udm19697-p13ulv10085) Units=km Length=0.0117042 bus1=p13udm19697.1.2 bus2=p13ulv10085.1.2 switch=n enabled=y phases=2 Linecode=1P_UG_AL_1/0_Brenau_2

New Line.l(r:p13udm19697-p13udt4556lv) Units=km Length=0.00980192 bus1=p13udt4556lv.1.2 bus2=p13udm19697.1.2 switch=n enabled=y phases=2 Linecode=1P_UG_AL_1/0_Brenau_2

New Line.l(r:p13udt4557lv-p13ulv10089) Units=km Length=0.0105183 bus1=p13udt4557lv.1.2 bus2=p13ulv10089.1.2 switch=n enabled=y phases=2 Linecode=1P_UG_AL_1/0_Brenau_2

New Line.l(r:p13udm19699-p13ulv10088) Units=km Length=0.0111597 bus1=p13udm19699.1.2 bus2=p13ulv10088.1.2 switch=n enabled=y phases=2 Linecode=1P_UG_AL_1/0_Brenau_2

New Line.l(r:p13udm19699-p13ulv89694) Units=km Length=0.011576 bus1=p13udm19699.1.2 bus2=p13ulv89694.1.2 switch=n enabled=y phases=2 Linecode=1P_UG_AL_1/0_Brenau_2

New Line.l(r:p13udm19699-p13ulv89706) Units=km Length=0.0205962 bus1=p13udm19699.1.2 bus2=p13ulv89706.1.2 switch=n enabled=y phases=2 Linecode=1P_UG_AL_1/0_Brenau_2

New Line.l(r:p13udm19699-p13udt4557lv) Units=km Length=0.0196134 bus1=p13udt4557lv.1.2 bus2=p13udm19699.1.2 switch=n enabled=y phases=2 Linecode=1P_UG_AL_2/0_Converse_2

New Line.l(r:p13udm19704-p13ulv89718) Units=km Length=0.010078400000000001 bus1=p13udm19704.1.2 bus2=p13ulv89718.1.2 switch=n enabled=y phases=2 Linecode=1P_UG_AL_1/0_Brenau_2

New Line.l(r:p13udm19704-p13ulv89734) Units=km Length=0.00700885 bus1=p13udm19704.1.2 bus2=p13ulv89734.1.2 switch=n enabled=y phases=2 Linecode=1P_UG_AL_1/0_Brenau_2

New Line.l(r:p13udm19701-p13ulv10091) Units=km Length=0.00971821 bus1=p13udm19701.1.2 bus2=p13ulv10091.1.2 switch=n enabled=y phases=2 Linecode=1P_UG_AL_1/0_Brenau_2

New Line.l(r:p13udm19705-p13ulv89729) Units=km Length=0.0114221 bus1=p13udm19705.1.2 bus2=p13ulv89729.1.2 switch=n enabled=y phases=2 Linecode=1P_OH_AL_2/0_Rucina_2

New Line.l(r:p13udm19701-p13udm19705) Units=km Length=0.0323443 bus1=p13udm19701.1.2 bus2=p13udm19705.1.2 switch=n enabled=y phases=2 Linecode=1P_OH_AL_4/0_Zuzara_2

New Line.l(r:p13udm19701-p13udm19704) Units=km Length=0.0196134 bus1=p13udm19704.1.2 bus2=p13udm19701.1.2 switch=n enabled=y phases=2 Linecode=1P_UG_AL_1/0_Brenau_2

New Line.l(r:p13udm19704-p13udt4557lv) Units=km Length=0.0098049 bus1=p13udt4557lv.1.2 bus2=p13udm19704.1.2 switch=n enabled=y phases=2 Linecode=1P_UG_AL_4/0_Sweetbriar_2

New Line.l(r:p13udt4558lv-p13ulv89712) Units=km Length=0.0133915 bus1=p13udt4558lv.1.2 bus2=p13ulv89712.1.2 switch=n enabled=y phases=2 Linecode=1P_OH_AL_2/0_Rucina_2

New Line.l(r:p13udm19707-p13ulv10092) Units=km Length=0.0310788 bus1=p13udm19707.1.2 bus2=p13ulv10092.1.2 switch=n enabled=y phases=2 Linecode=1P_OH_AL_4/0_Zuzara_2

New Line.l(r:p13udm19707-p13ulv10093) Units=km Length=0.0292752 bus1=p13udm19707.1.2 bus2=p13ulv10093.1.2 switch=n enabled=y phases=2 Linecode=1P_OH_AL_4/0_Zuzara_2

New Line.l(r:p13udm19707-p13ulv89717) Units=km Length=0.0131881 bus1=p13udm19707.1.2 bus2=p13ulv89717.1.2 switch=n enabled=y phases=2 Linecode=1P_OH_AL_2/0_Rucina_2

New Line.l(r:p13udm19707-p13udt4558lv) Units=km Length=0.0168692 bus1=p13udt4558lv.1.2 bus2=p13udm19707.1.2 switch=n enabled=y phases=2 Linecode=1P_OH_AL_2/0_Rucina_2

New Line.l(r:p13udm19709-p13ulv89701) Units=km Length=0.015086200000000001 bus1=p13udm19709.1.2 bus2=p13ulv89701.1.2 switch=n enabled=y phases=2 Linecode=1P_OH_AL_2/0_Rucina_2

New Line.l(r:p13udm19709-p13udt4558lv) Units=km Length=0.0168785 bus1=p13udt4558lv.1.2 bus2=p13udm19709.1.2 switch=n enabled=y phases=2 Linecode=1P_OH_AL_2/0_Rucina_2

New Line.l(r:p13udt4559lv-p13ulv10098) Units=km Length=0.0117779 bus1=p13udt4559lv.1.2 bus2=p13ulv10098.1.2 switch=n enabled=y phases=2 Linecode=1P_UG_AL_1/0_Brenau_2

New Line.l(r:p13udm19712-p13ulv10094) Units=km Length=0.0103082 bus1=p13udm19712.1.2 bus2=p13ulv10094.1.2 switch=n enabled=y phases=2 Linecode=1P_UG_AL_1/0_Brenau_2

New Line.l(r:p13udm19712-p13udt4559lv) Units=km Length=0.00985816 bus1=p13udt4559lv.1.2 bus2=p13udm19712.1.2 switch=n enabled=y phases=2 Linecode=1P_UG_AL_1/0_Brenau_2

New Line.l(r:p13udm19715-p13ulv91589) Units=km Length=0.0107134 bus1=p13udm19715.1.2 bus2=p13ulv91589.1.2 switch=n enabled=y phases=2 Linecode=1P_UG_AL_1/0_Brenau_2

New Line.l(r:p13udm19714-p13ulv91556) Units=km Length=0.0101424 bus1=p13udm19714.1.2 bus2=p13ulv91556.1.2 switch=n enabled=y phases=2 Linecode=1P_UG_AL_1/0_Brenau_2

New Line.l(r:p13udm19714-p13udm19715) Units=km Length=0.00985609 bus1=p13udm19715.1.2 bus2=p13udm19714.1.2 switch=n enabled=y phases=2 Linecode=1P_UG_AL_1/0_Brenau_2

New Line.l(r:p13udm19715-p13udt4559lv) Units=km Length=0.00986412 bus1=p13udt4559lv.1.2 bus2=p13udm19715.1.2 switch=n enabled=y phases=2 Linecode=1P_UG_AL_1/0_Brenau_2

New Line.l(r:p13udt4560lv-p13ulv10097) Units=km Length=0.0123395 bus1=p13udt4560lv.1.2 bus2=p13ulv10097.1.2 switch=n enabled=y phases=2 Linecode=1P_UG_AL_1/0_Brenau_2

New Line.l(r:p13udm19716-p13ulv10095) Units=km Length=0.00913592 bus1=p13udm19716.1.2 bus2=p13ulv10095.1.2 switch=n enabled=y phases=2 Linecode=1P_UG_AL_1/0_Brenau_2

New Line.l(r:p13udm19720-p13ulv91592) Units=km Length=0.0114685 bus1=p13udm19720.1.2 bus2=p13ulv91592.1.2 switch=n enabled=y phases=2 Linecode=1P_UG_AL_1/0_Brenau_2

New Line.l(r:p13udm19721-p13ulv91618) Units=km Length=0.009631020000000002 bus1=p13udm19721.1.2 bus2=p13ulv91618.1.2 switch=n enabled=y phases=2 Linecode=1P_UG_AL_1/0_Brenau_2

New Line.l(r:p13udm19720-p13udm19721) Units=km Length=0.00986412 bus1=p13udm19720.1.2 bus2=p13udm19721.1.2 switch=n enabled=y phases=2 Linecode=1P_UG_AL_1/0_Brenau_2

New Line.l(r:p13udm19716-p13udm19720) Units=km Length=0.00642336 bus1=p13udm19716.1.2 bus2=p13udm19720.1.2 switch=n enabled=y phases=2 Linecode=1P_UG_AL_2/0_Converse_2

New Line.l(r:p13udm19716-p13udt4560lv) Units=km Length=0.00640926 bus1=p13udt4560lv.1.2 bus2=p13udm19716.1.2 switch=n enabled=y phases=2 Linecode=1P_UG_AL_4/0_Sweetbriar_2

New Line.l(r:p13udm19717-p13ulv10096) Units=km Length=0.011711 bus1=p13udm19717.1.2 bus2=p13ulv10096.1.2 switch=n enabled=y phases=2 Linecode=1P_UG_AL_1/0_Brenau_2

New Line.l(r:p13udm19717-p13ulv89714) Units=km Length=0.0150732 bus1=p13udm19717.1.2 bus2=p13ulv89714.1.2 switch=n enabled=y phases=2 Linecode=1P_UG_AL_1/0_Brenau_2

New Line.l(r:p13udm19717-p13udt4560lv) Units=km Length=0.0109701 bus1=p13udt4560lv.1.2 bus2=p13udm19717.1.2 switch=n enabled=y phases=2 Linecode=1P_UG_AL_1/0_Brenau_2

New Line.l(r:p13udm19914-p13ulv10184) Units=km Length=0.0126569 bus1=p13udm19914.1.2 bus2=p13ulv10184.1.2 switch=n enabled=y phases=2 Linecode=1P_UG_AL_1/0_Brenau_2

New Line.l(r:p13udm19914-p13ulv10190) Units=km Length=0.0135471 bus1=p13udm19914.1.2 bus2=p13ulv10190.1.2 switch=n enabled=y phases=2 Linecode=1P_UG_AL_4/0_Sweetbriar_2

New Line.l(r:p13udm19914-p13udt4602lv) Units=km Length=0.00992919 bus1=p13udt4602lv.1.2 bus2=p13udm19914.1.2 switch=n enabled=y phases=2 Linecode=1P_UG_AL_4/0_Sweetbriar_2

New Line.l(r:p13udm19916-p13ulv88140) Units=km Length=0.0116816 bus1=p13udm19916.1.2 bus2=p13ulv88140.1.2 switch=n enabled=y phases=2 Linecode=1P_UG_AL_1/0_Brenau_2

New Line.l(r:p13udm19916-p13udt4602lv) Units=km Length=0.00992307 bus1=p13udt4602lv.1.2 bus2=p13udm19916.1.2 switch=n enabled=y phases=2 Linecode=1P_UG_AL_1/0_Brenau_2

New Line.l(r:p13udt4603lv-p13ulv88141) Units=km Length=0.0130445 bus1=p13udt4603lv.1.2 bus2=p13ulv88141.1.2 switch=n enabled=y phases=2 Linecode=1P_UG_AL_1/0_Brenau_2

New Line.l(r:p13udt4603lv-p13ulv88169) Units=km Length=0.0160607 bus1=p13udt4603lv.1.2 bus2=p13ulv88169.1.2 switch=n enabled=y phases=2 Linecode=1P_UG_AL_1/0_Brenau_2

New Line.l(r:p13udm19917-p13ulv10185) Units=km Length=0.0133896 bus1=p13udm19917.1.2 bus2=p13ulv10185.1.2 switch=n enabled=y phases=2 Linecode=1P_UG_AL_1/0_Brenau_2

New Line.l(r:p13udm19917-p13udt4603lv) Units=km Length=0.00992919 bus1=p13udt4603lv.1.2 bus2=p13udm19917.1.2 switch=n enabled=y phases=2 Linecode=1P_UG_AL_1/0_Brenau_2

New Line.l(r:p13udm19919-p13ulv88151) Units=km Length=0.0127957 bus1=p13udm19919.1.2 bus2=p13ulv88151.1.2 switch=n enabled=y phases=2 Linecode=1P_UG_AL_1/0_Brenau_2

New Line.l(r:p13udm19920-p13ulv88156) Units=km Length=0.0128211 bus1=p13udm19920.1.2 bus2=p13ulv88156.1.2 switch=n enabled=y phases=2 Linecode=1P_UG_AL_1/0_Brenau_2

New Line.l(r:p13udm19919-p13udm19920) Units=km Length=0.00992307 bus1=p13udm19919.1.2 bus2=p13udm19920.1.2 switch=n enabled=y phases=2 Linecode=1P_UG_AL_1/0_Brenau_2

New Line.l(r:p13udm19919-p13udt4603lv) Units=km Length=0.00992919 bus1=p13udt4603lv.1.2 bus2=p13udm19919.1.2 switch=n enabled=y phases=2 Linecode=1P_UG_AL_1/0_Brenau_2

New Line.l(r:p13udm19926-p13ulv88177) Units=km Length=0.0126097 bus1=p13udm19926.1.2 bus2=p13ulv88177.1.2 switch=n enabled=y phases=2 Linecode=1P_UG_AL_1/0_Brenau_2

New Line.l(r:p13udm19926-p13ulv99965) Units=km Length=0.0181339 bus1=p13udm19926.1.2 bus2=p13ulv99965.1.2 switch=n enabled=y phases=2 Linecode=1P_UG_AL_1/0_Brenau_2

New Line.l(r:p13udm19925-p13ulv88172) Units=km Length=0.0126398 bus1=p13udm19925.1.2 bus2=p13ulv88172.1.2 switch=n enabled=y phases=2 Linecode=1P_UG_AL_1/0_Brenau_2

New Line.l(r:p13udm19924-p13ulv88166) Units=km Length=0.0127936 bus1=p13udm19924.1.2 bus2=p13ulv88166.1.2 switch=n enabled=y phases=2 Linecode=1P_UG_AL_1/0_Brenau_2

New Line.l(r:p13udm19924-p13udm19925) Units=km Length=0.00992307 bus1=p13udm19925.1.2 bus2=p13udm19924.1.2 switch=n enabled=y phases=2 Linecode=1P_UG_AL_1/0_Brenau_2

New Line.l(r:p13udm19925-p13udm19926) Units=km Length=0.00992919 bus1=p13udm19926.1.2 bus2=p13udm19925.1.2 switch=n enabled=y phases=2 Linecode=1P_UG_AL_1/0_Brenau_2

New Line.l(r:p13udm19926-p13udt4604lv) Units=km Length=0.00992919 bus1=p13udt4604lv.1.2 bus2=p13udm19926.1.2 switch=n enabled=y phases=2 Linecode=1P_UG_AL_4/0_Sweetbriar_2

New Line.l(r:p13udm19927-p13ulv88179) Units=km Length=0.012576200000000001 bus1=p13udm19927.1.2 bus2=p13ulv88179.1.2 switch=n enabled=y phases=2 Linecode=1P_UG_AL_1/0_Brenau_2

New Line.l(r:p13udm19927-p13ulv99974) Units=km Length=0.0224767 bus1=p13udm19927.1.2 bus2=p13ulv99974.1.2 switch=n enabled=y phases=2 Linecode=1P_UG_AL_1/0_Brenau_2

New Line.l(r:p13udm19922-p13ulv10186) Units=km Length=0.0126139 bus1=p13udm19922.1.2 bus2=p13ulv10186.1.2 switch=n enabled=y phases=2 Linecode=1P_UG_AL_1/0_Brenau_2

New Line.l(r:p13udm19923-p13ulv10187) Units=km Length=0.012515100000000001 bus1=p13udm19923.1.2 bus2=p13ulv10187.1.2 switch=n enabled=y phases=2 Linecode=1P_UG_AL_1/0_Brenau_2

New Line.l(r:p13udm19922-p13udm19923) Units=km Length=0.00992919 bus1=p13udm19922.1.2 bus2=p13udm19923.1.2 switch=n enabled=y phases=2 Linecode=1P_UG_AL_1/0_Brenau_2

New Line.l(r:p13udm19922-p13udm19927) Units=km Length=0.00992919 bus1=p13udm19927.1.2 bus2=p13udm19922.1.2 switch=n enabled=y phases=2 Linecode=1P_UG_AL_1/0_Brenau_2

New Line.l(r:p13udm19927-p13udt4604lv) Units=km Length=0.00992307 bus1=p13udt4604lv.1.2 bus2=p13udm19927.1.2 switch=n enabled=y phases=2 Linecode=1P_UG_AL_4/0_Sweetbriar_2

New Line.l(r:p13udt4605lv-p13ulv99971) Units=km Length=0.0130054 bus1=p13udt4605lv.1.2 bus2=p13ulv99971.1.2 switch=n enabled=y phases=2 Linecode=1P_UG_AL_1/0_Brenau_2

New Line.l(r:p13udt4605lv-p13ulv99983) Units=km Length=0.008876680000000001 bus1=p13udt4605lv.1.2 bus2=p13ulv99983.1.2 switch=n enabled=y phases=2 Linecode=1P_UG_AL_2/0_Converse_2

New Line.l(r:p13udt4605lv-p13ulv99995) Units=km Length=0.04192390000000001 bus1=p13udt4605lv.1.2 bus2=p13ulv99995.1.2 switch=n enabled=y phases=2 Linecode=1P_UG_AL_1/0_Brenau_2

New Line.l(r:p13udm19930-p13ulv10188) Units=km Length=0.0136544 bus1=p13udm19930.1.2 bus2=p13ulv10188.1.2 switch=n enabled=y phases=2 Linecode=1P_UG_AL_1/0_Brenau_2

New Line.l(r:p13udm19930-p13ulv100005) Units=km Length=0.0298983 bus1=p13udm19930.1.2 bus2=p13ulv100005.1.2 switch=n enabled=y phases=2 Linecode=1P_UG_AL_1/0_Brenau_2

New Line.l(r:p13udm19934-p13ulv99989) Units=km Length=0.00906005 bus1=p13udm19934.1.2 bus2=p13ulv99989.1.2 switch=n enabled=y phases=2 Linecode=1P_UG_AL_2/0_Converse_2

New Line.l(r:p13udm19930-p13udm19934) Units=km Length=0.00992307 bus1=p13udm19930.1.2 bus2=p13udm19934.1.2 switch=n enabled=y phases=2 Linecode=1P_UG_AL_2/0_Converse_2

New Line.l(r:p13udm19930-p13udt4605lv) Units=km Length=0.00992919 bus1=p13udt4605lv.1.2 bus2=p13udm19930.1.2 switch=n enabled=y phases=2 Linecode=1P_UG_AL_4/0_Sweetbriar_2

New Line.l(r:p13udm19931-p13ulv99964) Units=km Length=0.0131572 bus1=p13udm19931.1.2 bus2=p13ulv99964.1.2 switch=n enabled=y phases=2 Linecode=1P_UG_AL_1/0_Brenau_2

New Line.l(r:p13udm19931-p13udt4605lv) Units=km Length=0.00992919 bus1=p13udt4605lv.1.2 bus2=p13udm19931.1.2 switch=n enabled=y phases=2 Linecode=1P_UG_AL_1/0_Brenau_2

New Line.l(r:p13udt4608lv-p13ulv10192) Units=km Length=0.0289585 bus1=p13udt4608lv.1.2 bus2=p13ulv10192.1.2 switch=n enabled=y phases=2 Linecode=1P_UG_AL_1/0_Brenau_2

New Line.l(r:p13udm19941-p13ulv93801) Units=km Length=0.00649015 bus1=p13udm19941.1.2 bus2=p13ulv93801.1.2 switch=n enabled=y phases=2 Linecode=1P_UG_AL_4/0_Sweetbriar_2

New Line.l(r:p13udm19941-p13udt4608lv) Units=km Length=0.0336715 bus1=p13udt4608lv.1.2 bus2=p13udm19941.1.2 switch=n enabled=y phases=2 Linecode=1P_UG_AL_4/0_Sweetbriar_2

New Line.l(r:p13udt4609lv-p13ulv99970) Units=km Length=0.0155548 bus1=p13udt4609lv.1.2 bus2=p13ulv99970.1.2 switch=n enabled=y phases=2 Linecode=1P_UG_AL_1/0_Brenau_2

New Line.l(r:p13udm19942-p13ulv10193) Units=km Length=0.0153777 bus1=p13udm19942.1.2 bus2=p13ulv10193.1.2 switch=n enabled=y phases=2 Linecode=1P_UG_AL_1/0_Brenau_2

New Line.l(r:p13udm19945-p13ulv99985) Units=km Length=0.04436380000000001 bus1=p13udm19945.1.2 bus2=p13ulv99985.1.2 switch=n enabled=y phases=2 Linecode=1P_UG_AL_1/0_Brenau_2

New Line.l(r:p13udm19942-p13udm19945) Units=km Length=0.00962926 bus1=p13udm19942.1.2 bus2=p13udm19945.1.2 switch=n enabled=y phases=2 Linecode=1P_UG_AL_1/0_Brenau_2

New Line.l(r:p13udm19942-p13udt4609lv) Units=km Length=0.00962926 bus1=p13udt4609lv.1.2 bus2=p13udm19942.1.2 switch=n enabled=y phases=2 Linecode=1P_UG_AL_4/0_Sweetbriar_2

New Line.l(r:p13udm19944-p13ulv99981) Units=km Length=0.0519671 bus1=p13udm19944.1.2 bus2=p13ulv99981.1.2 switch=n enabled=y phases=2 Linecode=1P_UG_AL_1/0_Brenau_2

New Line.l(r:p13udm19944-p13udt4609lv) Units=km Length=0.028882 bus1=p13udt4609lv.1.2 bus2=p13udm19944.1.2 switch=n enabled=y phases=2 Linecode=1P_UG_AL_1/0_Brenau_2

New Line.l(r:p13udt4610lv-p13ulv10194) Units=km Length=0.016343400000000004 bus1=p13udt4610lv.1.2 bus2=p13ulv10194.1.2 switch=n enabled=y phases=2 Linecode=1P_UG_AL_1/0_Brenau_2

New Line.l(r:p13udt4610lv-p13ulv88163) Units=km Length=0.0160319 bus1=p13udt4610lv.1.2 bus2=p13ulv88163.1.2 switch=n enabled=y phases=2 Linecode=1P_UG_AL_4/0_Sweetbriar_2

New Line.l(r:p13udt4611lv-p13ulv10195) Units=km Length=0.041563 bus1=p13udt4611lv.1.2 bus2=p13ulv10195.1.2 switch=n enabled=y phases=2 Linecode=1P_OH_AL_4/0_Zuzara_2

New Line.l(r:p13udt4611lv-p13ulv93786) Units=km Length=0.0162831 bus1=p13udt4611lv.1.2 bus2=p13ulv93786.1.2 switch=n enabled=y phases=2 Linecode=1P_OH_AL_2/0_Rucina_2

New Line.l(r:p13udt4611lv-p13ulv99994) Units=km Length=0.0240417 bus1=p13udt4611lv.1.2 bus2=p13ulv99994.1.2 switch=n enabled=y phases=2 Linecode=1P_OH_AL_2/0_Rucina_2

New Line.l(r:p13udm19950-p13ulv99990) Units=km Length=0.0188197 bus1=p13udm19950.1.2 bus2=p13ulv99990.1.2 switch=n enabled=y phases=2 Linecode=1P_OH_AL_2/0_Rucina_2

New Line.l(r:p13udm19950-p13udt4611lv) Units=km Length=0.0176973 bus1=p13udt4611lv.1.2 bus2=p13udm19950.1.2 switch=n enabled=y phases=2 Linecode=1P_OH_AL_2/0_Rucina_2

New Line.l(r:p13udt4613lv-p13ulv88170) Units=km Length=0.0484565 bus1=p13udt4613lv.1.2 bus2=p13ulv88170.1.2 switch=n enabled=y phases=2 Linecode=1P_UG_AL_1/0_Brenau_2

New Line.l(r:p13udt4613lv-p13ulv99959) Units=km Length=0.010588000000000002 bus1=p13udt4613lv.1.2 bus2=p13ulv99959.1.2 switch=n enabled=y phases=2 Linecode=1P_UG_AL_1/0_Brenau_2

New Line.l(r:p13udm19953-p13ulv10197) Units=km Length=0.0101879 bus1=p13udm19953.1.2 bus2=p13ulv10197.1.2 switch=n enabled=y phases=2 Linecode=1P_UG_AL_1/0_Brenau_2

New Line.l(r:p13udm19953-p13ulv99975) Units=km Length=0.0162663 bus1=p13udm19953.1.2 bus2=p13ulv99975.1.2 switch=n enabled=y phases=2 Linecode=1P_UG_AL_1/0_Brenau_2

New Line.l(r:p13udm19953-p13udt4613lv) Units=km Length=0.00962926 bus1=p13udt4613lv.1.2 bus2=p13udm19953.1.2 switch=n enabled=y phases=2 Linecode=1P_UG_AL_4/0_Sweetbriar_2

New Line.l(r:p13udt4614lv-p13ulv10199) Units=km Length=0.0458937 bus1=p13udt4614lv.1.2 bus2=p13ulv10199.1.2 switch=n enabled=y phases=2 Linecode=1P_UG_AL_2/0_Converse_2

New Line.l(r:p13udm19957-p13ulv10198) Units=km Length=0.021787900000000002 bus1=p13udm19957.1.2 bus2=p13ulv10198.1.2 switch=n enabled=y phases=2 Linecode=1P_UG_AL_2/0_Converse_2

New Line.l(r:p13udm19957-p13udt4614lv) Units=km Length=0.00962926 bus1=p13udt4614lv.1.2 bus2=p13udm19957.1.2 switch=n enabled=y phases=2 Linecode=1P_UG_AL_2/0_Converse_2

New Line.l(r:p13udt4615lv-p13ulv10201) Units=km Length=0.013351000000000002 bus1=p13udt4615lv.1.2 bus2=p13ulv10201.1.2 switch=n enabled=y phases=2 Linecode=1P_UG_AL_1/0_Brenau_2

New Line.l(r:p13udt4615lv-p13ulv10223) Units=km Length=0.0385091 bus1=p13udt4615lv.1.2 bus2=p13ulv10223.1.2 switch=n enabled=y phases=2 Linecode=1P_UG_AL_1/0_Brenau_2

New Line.l(r:p13udt4615lv-p13ulv88089) Units=km Length=0.0103434 bus1=p13udt4615lv.1.2 bus2=p13ulv88089.1.2 switch=n enabled=y phases=2 Linecode=1P_UG_AL_1/0_Brenau_2

New Line.l(r:p13udm19960-p13ulv10202) Units=km Length=0.0125252 bus1=p13udm19960.1.2 bus2=p13ulv10202.1.2 switch=n enabled=y phases=2 Linecode=1P_UG_AL_1/0_Brenau_2

New Line.l(r:p13udm19964-p13ulv88104) Units=km Length=0.0151211 bus1=p13udm19964.1.2 bus2=p13ulv88104.1.2 switch=n enabled=y phases=2 Linecode=1P_UG_AL_1/0_Brenau_2

New Line.l(r:p13udm19960-p13udm19964) Units=km Length=0.00963536 bus1=p13udm19960.1.2 bus2=p13udm19964.1.2 switch=n enabled=y phases=2 Linecode=1P_UG_AL_1/0_Brenau_2

New Line.l(r:p13udm19960-p13udt4615lv) Units=km Length=0.0192506 bus1=p13udt4615lv.1.2 bus2=p13udm19960.1.2 switch=n enabled=y phases=2 Linecode=1P_UG_AL_1/0_Brenau_2

New Line.l(r:p13udm19962-p13ulv88088) Units=km Length=0.0128429 bus1=p13udm19962.1.2 bus2=p13ulv88088.1.2 switch=n enabled=y phases=2 Linecode=1P_UG_AL_1/0_Brenau_2

New Line.l(r:p13udm19962-p13udt4615lv) Units=km Length=0.028878 bus1=p13udt4615lv.1.2 bus2=p13udm19962.1.2 switch=n enabled=y phases=2 Linecode=1P_UG_AL_1/0_Brenau_2

New Line.l(r:p13udt4616lv-p13ulv10204) Units=km Length=0.0126016 bus1=p13udt4616lv.1.2 bus2=p13ulv10204.1.2 switch=n enabled=y phases=2 Linecode=1P_UG_AL_1/0_Brenau_2

New Line.l(r:p13udm19965-p13ulv10203) Units=km Length=0.0136492 bus1=p13udm19965.1.2 bus2=p13ulv10203.1.2 switch=n enabled=y phases=2 Linecode=1P_UG_AL_1/0_Brenau_2

New Line.l(r:p13udm19965-p13ulv88150) Units=km Length=0.0119531 bus1=p13udm19965.1.2 bus2=p13ulv88150.1.2 switch=n enabled=y phases=2 Linecode=1P_UG_AL_1/0_Brenau_2

New Line.l(r:p13udm19968-p13ulv88146) Units=km Length=0.011261900000000002 bus1=p13udm19968.1.2 bus2=p13ulv88146.1.2 switch=n enabled=y phases=2 Linecode=1P_UG_AL_1/0_Brenau_2

New Line.l(r:p13udm19965-p13udm19968) Units=km Length=0.009179160000000002 bus1=p13udm19965.1.2 bus2=p13udm19968.1.2 switch=n enabled=y phases=2 Linecode=1P_UG_AL_1/0_Brenau_2

New Line.l(r:p13udm19965-p13udt4616lv) Units=km Length=0.0091652 bus1=p13udt4616lv.1.2 bus2=p13udm19965.1.2 switch=n enabled=y phases=2 Linecode=1P_UG_AL_4/0_Sweetbriar_2

New Line.l(r:p13udm19970-p13ulv88161) Units=km Length=0.0150622 bus1=p13udm19970.1.2 bus2=p13ulv88161.1.2 switch=n enabled=y phases=2 Linecode=1P_UG_AL_1/0_Brenau_2

New Line.l(r:p13udm19967-p13ulv88133) Units=km Length=0.013802300000000002 bus1=p13udm19967.1.2 bus2=p13ulv88133.1.2 switch=n enabled=y phases=2 Linecode=1P_UG_AL_1/0_Brenau_2

New Line.l(r:p13udm19967-p13ulv88167) Units=km Length=0.0148781 bus1=p13udm19967.1.2 bus2=p13ulv88167.1.2 switch=n enabled=y phases=2 Linecode=1P_UG_AL_1/0_Brenau_2

New Line.l(r:p13udm19967-p13udm19970) Units=km Length=0.00956803 bus1=p13udm19970.1.2 bus2=p13udm19967.1.2 switch=n enabled=y phases=2 Linecode=1P_UG_AL_4/0_Sweetbriar_2

New Line.l(r:p13udm19970-p13udt4616lv) Units=km Length=0.00956803 bus1=p13udt4616lv.1.2 bus2=p13udm19970.1.2 switch=n enabled=y phases=2 Linecode=1P_UG_AL_4/0_Sweetbriar_2

New Line.l(r:p13udt4617lv-p13ulv10220) Units=km Length=0.0122124 bus1=p13udt4617lv.1.2 bus2=p13ulv10220.1.2 switch=n enabled=y phases=2 Linecode=1P_UG_AL_1/0_Brenau_2

New Line.l(r:p13udm19974-p13ulv10219) Units=km Length=0.0127998 bus1=p13udm19974.1.2 bus2=p13ulv10219.1.2 switch=n enabled=y phases=2 Linecode=1P_UG_AL_1/0_Brenau_2

New Line.l(r:p13udm19979-p13ulv88079) Units=km Length=0.0121075 bus1=p13udm19979.1.2 bus2=p13ulv88079.1.2 switch=n enabled=y phases=2 Linecode=1P_UG_AL_1/0_Brenau_2

New Line.l(r:p13udm19978-p13ulv88076) Units=km Length=0.0119337 bus1=p13udm19978.1.2 bus2=p13ulv88076.1.2 switch=n enabled=y phases=2 Linecode=1P_UG_AL_1/0_Brenau_2

New Line.l(r:p13udm19973-p13ulv10218) Units=km Length=0.00861247 bus1=p13udm19973.1.2 bus2=p13ulv10218.1.2 switch=n enabled=y phases=2 Linecode=1P_UG_AL_1/0_Brenau_2

New Line.l(r:p13udm19973-p13udm19978) Units=km Length=0.0294173 bus1=p13udm19978.1.2 bus2=p13udm19973.1.2 switch=n enabled=y phases=2 Linecode=1P_UG_AL_1/0_Brenau_2

New Line.l(r:p13udm19978-p13udm19979) Units=km Length=0.009629230000000003 bus1=p13udm19979.1.2 bus2=p13udm19978.1.2 switch=n enabled=y phases=2 Linecode=1P_UG_AL_1/0_Brenau_2

New Line.l(r:p13udm19974-p13udm19979) Units=km Length=0.00962747 bus1=p13udm19974.1.2 bus2=p13udm19979.1.2 switch=n enabled=y phases=2 Linecode=1P_UG_AL_2/0_Converse_2

New Line.l(r:p13udm19974-p13udt4617lv) Units=km Length=0.009629230000000003 bus1=p13udt4617lv.1.2 bus2=p13udm19974.1.2 switch=n enabled=y phases=2 Linecode=1P_UG_AL_4/0_Sweetbriar_2

New Line.l(r:p13udm19976-p13ulv10221) Units=km Length=0.0120625 bus1=p13udm19976.1.2 bus2=p13ulv10221.1.2 switch=n enabled=y phases=2 Linecode=1P_UG_AL_1/0_Brenau_2

New Line.l(r:p13udm19976-p13ulv88097) Units=km Length=0.0130363 bus1=p13udm19976.1.2 bus2=p13ulv88097.1.2 switch=n enabled=y phases=2 Linecode=1P_UG_AL_1/0_Brenau_2

New Line.l(r:p13udm19972-p13ulv10205) Units=km Length=0.0388627 bus1=p13udm19972.1.2 bus2=p13ulv10205.1.2 switch=n enabled=y phases=2 Linecode=1P_UG_AL_1/0_Brenau_2

New Line.l(r:p13udm19972-p13ulv10222) Units=km Length=0.012831400000000001 bus1=p13udm19972.1.2 bus2=p13ulv10222.1.2 switch=n enabled=y phases=2 Linecode=1P_UG_AL_1/0_Brenau_2

New Line.l(r:p13udm19972-p13ulv88110) Units=km Length=0.0123863 bus1=p13udm19972.1.2 bus2=p13ulv88110.1.2 switch=n enabled=y phases=2 Linecode=1P_UG_AL_1/0_Brenau_2

New Line.l(r:p13udm19972-p13udm19976) Units=km Length=0.00963536 bus1=p13udm19976.1.2 bus2=p13udm19972.1.2 switch=n enabled=y phases=2 Linecode=1P_UG_AL_4/0_Sweetbriar_2

New Line.l(r:p13udm19976-p13udt4617lv) Units=km Length=0.00962133 bus1=p13udt4617lv.1.2 bus2=p13udm19976.1.2 switch=n enabled=y phases=2 Linecode=1P_UG_AL_4/0_Sweetbriar_2

New Line.l(r:p13udt4618lv-p13ulv10206) Units=km Length=0.046678 bus1=p13udt4618lv.1.2 bus2=p13ulv10206.1.2 switch=n enabled=y phases=2 Linecode=1P_UG_AL_1/0_Brenau_2

New Line.l(r:p13udt4618lv-p13ulv10207) Units=km Length=0.0115147 bus1=p13udt4618lv.1.2 bus2=p13ulv10207.1.2 switch=n enabled=y phases=2 Linecode=1P_UG_AL_1/0_Brenau_2

New Line.l(r:p13udt4618lv-p13ulv10208) Units=km Length=0.0318019 bus1=p13udt4618lv.1.2 bus2=p13ulv10208.1.2 switch=n enabled=y phases=2 Linecode=1P_UG_AL_1/0_Brenau_2

New Line.l(r:p13udt4618lv-p13ulv88069) Units=km Length=0.0127882 bus1=p13udt4618lv.1.2 bus2=p13ulv88069.1.2 switch=n enabled=y phases=2 Linecode=1P_UG_AL_1/0_Brenau_2

New Line.l(r:p13udm19986-p13ulv88083) Units=km Length=0.013095200000000001 bus1=p13udm19986.1.2 bus2=p13ulv88083.1.2 switch=n enabled=y phases=2 Linecode=1P_UG_AL_1/0_Brenau_2

New Line.l(r:p13udm19986-p13udt4618lv) Units=km Length=0.00986412 bus1=p13udt4618lv.1.2 bus2=p13udm19986.1.2 switch=n enabled=y phases=2 Linecode=1P_UG_AL_1/0_Brenau_2

New Line.l(r:p13udm19987-p13ulv88098) Units=km Length=0.0120504 bus1=p13udm19987.1.2 bus2=p13ulv88098.1.2 switch=n enabled=y phases=2 Linecode=1P_UG_AL_1/0_Brenau_2

New Line.l(r:p13udm19988-p13ulv88115) Units=km Length=0.022987100000000003 bus1=p13udm19988.1.2 bus2=p13ulv88115.1.2 switch=n enabled=y phases=2 Linecode=1P_UG_AL_1/0_Brenau_2

New Line.l(r:p13udm19987-p13udm19988) Units=km Length=0.00986412 bus1=p13udm19987.1.2 bus2=p13udm19988.1.2 switch=n enabled=y phases=2 Linecode=1P_UG_AL_1/0_Brenau_2

New Line.l(r:p13udm19987-p13udt4618lv) Units=km Length=0.00986412 bus1=p13udt4618lv.1.2 bus2=p13udm19987.1.2 switch=n enabled=y phases=2 Linecode=1P_UG_AL_1/0_Brenau_2

New Line.l(r:p13udt4619lv-p13ulv10211) Units=km Length=0.0148871 bus1=p13udt4619lv.1.2 bus2=p13ulv10211.1.2 switch=n enabled=y phases=2 Linecode=1P_UG_AL_1/0_Brenau_2

New Line.l(r:p13udm19991-p13ulv10212) Units=km Length=0.014709700000000001 bus1=p13udm19991.1.2 bus2=p13ulv10212.1.2 switch=n enabled=y phases=2 Linecode=1P_UG_AL_1/0_Brenau_2

New Line.l(r:p13udm19991-p13ulv88026) Units=km Length=0.0231277 bus1=p13udm19991.1.2 bus2=p13ulv88026.1.2 switch=n enabled=y phases=2 Linecode=1P_UG_AL_1/0_Brenau_2

New Line.l(r:p13udm19995-p13ulv88050) Units=km Length=0.015098 bus1=p13udm19995.1.2 bus2=p13ulv88050.1.2 switch=n enabled=y phases=2 Linecode=1P_UG_AL_1/0_Brenau_2

New Line.l(r:p13udm19991-p13udm19995) Units=km Length=0.00902067 bus1=p13udm19991.1.2 bus2=p13udm19995.1.2 switch=n enabled=y phases=2 Linecode=1P_UG_AL_1/0_Brenau_2

New Line.l(r:p13udm19991-p13udt4619lv) Units=km Length=0.0090286 bus1=p13udt4619lv.1.2 bus2=p13udm19991.1.2 switch=n enabled=y phases=2 Linecode=1P_UG_AL_4/0_Sweetbriar_2

New Line.l(r:p13udm19992-p13ulv10213) Units=km Length=0.0101936 bus1=p13udm19992.1.2 bus2=p13ulv10213.1.2 switch=n enabled=y phases=2 Linecode=1P_UG_AL_1/0_Brenau_2

New Line.l(r:p13udm19992-p13ulv88037) Units=km Length=0.0205525 bus1=p13udm19992.1.2 bus2=p13ulv88037.1.2 switch=n enabled=y phases=2 Linecode=1P_UG_AL_1/0_Brenau_2

New Line.l(r:p13udm19989-p13ulv10209) Units=km Length=0.0109282 bus1=p13udm19989.1.2 bus2=p13ulv10209.1.2 switch=n enabled=y phases=2 Linecode=1P_UG_AL_1/0_Brenau_2

New Line.l(r:p13udm19989-p13udm19992) Units=km Length=0.00876357 bus1=p13udm19992.1.2 bus2=p13udm19989.1.2 switch=n enabled=y phases=2 Linecode=1P_UG_AL_1/0_Brenau_2

New Line.l(r:p13udm19992-p13udt4619lv) Units=km Length=0.008765320000000002 bus1=p13udt4619lv.1.2 bus2=p13udm19992.1.2 switch=n enabled=y phases=2 Linecode=1P_UG_AL_2/0_Converse_2

New Line.l(r:p13udt4620lv-p13ulv88085) Units=km Length=0.013013 bus1=p13udt4620lv.1.2 bus2=p13ulv88085.1.2 switch=n enabled=y phases=2 Linecode=1P_UG_AL_1/0_Brenau_2

New Line.l(r:p13udm19997-p13ulv88080) Units=km Length=0.0126372 bus1=p13udm19997.1.2 bus2=p13ulv88080.1.2 switch=n enabled=y phases=2 Linecode=1P_UG_AL_1/0_Brenau_2

New Line.l(r:p13udm19996-p13ulv10210) Units=km Length=0.013087200000000002 bus1=p13udm19996.1.2 bus2=p13ulv10210.1.2 switch=n enabled=y phases=2 Linecode=1P_UG_AL_1/0_Brenau_2

New Line.l(r:p13udm19996-p13udm19997) Units=km Length=0.00987605 bus1=p13udm19997.1.2 bus2=p13udm19996.1.2 switch=n enabled=y phases=2 Linecode=1P_UG_AL_1/0_Brenau_2

New Line.l(r:p13udm19997-p13udt4620lv) Units=km Length=0.00987008 bus1=p13udt4620lv.1.2 bus2=p13udm19997.1.2 switch=n enabled=y phases=2 Linecode=1P_UG_AL_1/0_Brenau_2

New Line.l(r:p13udm20000-p13ulv88126) Units=km Length=0.0105712 bus1=p13udm20000.1.2 bus2=p13ulv88126.1.2 switch=n enabled=y phases=2 Linecode=1P_UG_AL_1/0_Brenau_2

New Line.l(r:p13udm19999-p13ulv88090) Units=km Length=0.0169171 bus1=p13udm19999.1.2 bus2=p13ulv88090.1.2 switch=n enabled=y phases=2 Linecode=1P_UG_AL_1/0_Brenau_2

New Line.l(r:p13udm19999-p13udm20000) Units=km Length=0.00987008 bus1=p13udm20000.1.2 bus2=p13udm19999.1.2 switch=n enabled=y phases=2 Linecode=1P_UG_AL_1/0_Brenau_2

New Line.l(r:p13udm20000-p13udt4620lv) Units=km Length=0.00987605 bus1=p13udt4620lv.1.2 bus2=p13udm20000.1.2 switch=n enabled=y phases=2 Linecode=1P_UG_AL_2/0_Converse_2

New Line.l(r:p13udt4621lv-p13ulv88045) Units=km Length=0.0151756 bus1=p13udt4621lv.1.2 bus2=p13ulv88045.1.2 switch=n enabled=y phases=2 Linecode=1P_UG_AL_1/0_Brenau_2

New Line.l(r:p13udm20001-p13ulv10214) Units=km Length=0.0146077 bus1=p13udm20001.1.2 bus2=p13ulv10214.1.2 switch=n enabled=y phases=2 Linecode=1P_UG_AL_1/0_Brenau_2

New Line.l(r:p13udm20001-p13udt4621lv) Units=km Length=0.00902067 bus1=p13udt4621lv.1.2 bus2=p13udm20001.1.2 switch=n enabled=y phases=2 Linecode=1P_UG_AL_1/0_Brenau_2

New Line.l(r:p13udm20002-p13ulv10279) Units=km Length=0.0166688 bus1=p13udm20002.1.2 bus2=p13ulv10279.1.2 switch=n enabled=y phases=2 Linecode=1P_UG_AL_4/0_Sweetbriar_2

New Line.l(r:p13udm20002-p13udt4621lv) Units=km Length=0.0090286 bus1=p13udt4621lv.1.2 bus2=p13udm20002.1.2 switch=n enabled=y phases=2 Linecode=1P_UG_AL_4/0_Sweetbriar_2

New Line.l(r:p13udt4622lv-p13ulv10216) Units=km Length=0.0129772 bus1=p13udt4622lv.1.2 bus2=p13ulv10216.1.2 switch=n enabled=y phases=2 Linecode=1P_UG_AL_1/0_Brenau_2

New Line.l(r:p13udm20004-p13ulv10215) Units=km Length=0.010217200000000001 bus1=p13udm20004.1.2 bus2=p13ulv10215.1.2 switch=n enabled=y phases=2 Linecode=1P_UG_AL_1/0_Brenau_2

New Line.l(r:p13udm20004-p13udt4622lv) Units=km Length=0.00989602 bus1=p13udt4622lv.1.2 bus2=p13udm20004.1.2 switch=n enabled=y phases=2 Linecode=1P_UG_AL_1/0_Brenau_2

New Line.l(r:p13udm20006-p13ulv88048) Units=km Length=0.012007 bus1=p13udm20006.1.2 bus2=p13ulv88048.1.2 switch=n enabled=y phases=2 Linecode=1P_UG_AL_1/0_Brenau_2

New Line.l(r:p13udm20006-p13udt4622lv) Units=km Length=0.009894 bus1=p13udt4622lv.1.2 bus2=p13udm20006.1.2 switch=n enabled=y phases=2 Linecode=1P_UG_AL_1/0_Brenau_2

New Line.l(r:p13udm20008-p13ulv10277) Units=km Length=0.0427256 bus1=p13udm20008.1.2 bus2=p13ulv10277.1.2 switch=n enabled=y phases=2 Linecode=1P_UG_AL_4/0_Sweetbriar_2

New Line.l(r:p13udm20009-p13ulv10278) Units=km Length=0.0537855 bus1=p13udm20009.1.2 bus2=p13ulv10278.1.2 switch=n enabled=y phases=2 Linecode=1P_UG_AL_1/0_Brenau_2

New Line.l(r:p13udm20008-p13udm20009) Units=km Length=0.00919946 bus1=p13udm20008.1.2 bus2=p13udm20009.1.2 switch=n enabled=y phases=2 Linecode=1P_UG_AL_1/0_Brenau_2

New Line.l(r:p13udm20008-p13udt4623lv) Units=km Length=0.009197720000000001 bus1=p13udt4623lv.1.2 bus2=p13udm20008.1.2 switch=n enabled=y phases=2 Linecode=1P_UG_AL_4/0_Sweetbriar_2

New Line.l(r:p13udm20010-p13ulv89858) Units=km Length=0.0504029 bus1=p13udm20010.1.2 bus2=p13ulv89858.1.2 switch=n enabled=y phases=2 Linecode=1P_UG_AL_1/0_Brenau_2

New Line.l(r:p13udm20007-p13ulv10224) Units=km Length=0.015281400000000002 bus1=p13udm20007.1.2 bus2=p13ulv10224.1.2 switch=n enabled=y phases=2 Linecode=1P_UG_AL_1/0_Brenau_2

New Line.l(r:p13udm20007-p13ulv89871) Units=km Length=0.019861 bus1=p13udm20007.1.2 bus2=p13ulv89871.1.2 switch=n enabled=y phases=2 Linecode=1P_UG_AL_1/0_Brenau_2

New Line.l(r:p13udm20007-p13udm20010) Units=km Length=0.00984761 bus1=p13udm20010.1.2 bus2=p13udm20007.1.2 switch=n enabled=y phases=2 Linecode=1P_UG_AL_4/0_Sweetbriar_2

New Line.l(r:p13udm20010-p13udt4623lv) Units=km Length=0.009197720000000001 bus1=p13udt4623lv.1.2 bus2=p13udm20010.1.2 switch=n enabled=y phases=2 Linecode=1P_UG_AL_4/0_Sweetbriar_2

New Line.l(r:p13udt4624lv-p13ulv87987) Units=km Length=0.0496822 bus1=p13udt4624lv.1.2 bus2=p13ulv87987.1.2 switch=n enabled=y phases=2 Linecode=1P_UG_AL_1/0_Brenau_2

New Line.l(r:p13udm20012-p13ulv10225) Units=km Length=0.0154781 bus1=p13udm20012.1.2 bus2=p13ulv10225.1.2 switch=n enabled=y phases=2 Linecode=1P_UG_AL_1/0_Brenau_2

New Line.l(r:p13udm20012-p13ulv87975) Units=km Length=0.0497339 bus1=p13udm20012.1.2 bus2=p13ulv87975.1.2 switch=n enabled=y phases=2 Linecode=1P_UG_AL_1/0_Brenau_2

New Line.l(r:p13udm20012-p13udt4624lv) Units=km Length=0.00919946 bus1=p13udt4624lv.1.2 bus2=p13udm20012.1.2 switch=n enabled=y phases=2 Linecode=1P_UG_AL_1/0_Brenau_2

New Line.l(r:p13udm20014-p13ulv87981) Units=km Length=0.0155312 bus1=p13udm20014.1.2 bus2=p13ulv87981.1.2 switch=n enabled=y phases=2 Linecode=1P_UG_AL_1/0_Brenau_2

New Line.l(r:p13udm20014-p13ulv87993) Units=km Length=0.0502882 bus1=p13udm20014.1.2 bus2=p13ulv87993.1.2 switch=n enabled=y phases=2 Linecode=1P_UG_AL_1/0_Brenau_2

New Line.l(r:p13udm20014-p13udt4624lv) Units=km Length=0.009197720000000001 bus1=p13udt4624lv.1.2 bus2=p13udm20014.1.2 switch=n enabled=y phases=2 Linecode=1P_UG_AL_4/0_Sweetbriar_2

New Line.l(r:p13udm20017-p13ulv10226) Units=km Length=0.0143887 bus1=p13udm20017.1.2 bus2=p13ulv10226.1.2 switch=n enabled=y phases=2 Linecode=1P_UG_AL_1/0_Brenau_2

New Line.l(r:p13udm20017-p13ulv89834) Units=km Length=0.0210233 bus1=p13udm20017.1.2 bus2=p13ulv89834.1.2 switch=n enabled=y phases=2 Linecode=1P_UG_AL_4/0_Sweetbriar_2

New Line.l(r:p13udm20017-p13udt4625lv) Units=km Length=0.009191570000000001 bus1=p13udt4625lv.1.2 bus2=p13udm20017.1.2 switch=n enabled=y phases=2 Linecode=1P_UG_AL_4/0_Sweetbriar_2

New Line.l(r:p13udm20018-p13ulv89824) Units=km Length=0.0197396 bus1=p13udm20018.1.2 bus2=p13ulv89824.1.2 switch=n enabled=y phases=2 Linecode=1P_UG_AL_4/0_Sweetbriar_2

New Line.l(r:p13udm20018-p13udt4625lv) Units=km Length=0.00920561 bus1=p13udt4625lv.1.2 bus2=p13udm20018.1.2 switch=n enabled=y phases=2 Linecode=1P_UG_AL_4/0_Sweetbriar_2

New Line.l(r:p13udt4627lv-p13ulv10229) Units=km Length=0.0150491 bus1=p13udt4627lv.1.2 bus2=p13ulv10229.1.2 switch=n enabled=y phases=2 Linecode=1P_UG_AL_1/0_Brenau_2

New Line.l(r:p13udm20021-p13ulv10228) Units=km Length=0.014857000000000002 bus1=p13udm20021.1.2 bus2=p13ulv10228.1.2 switch=n enabled=y phases=2 Linecode=1P_UG_AL_1/0_Brenau_2

New Line.l(r:p13udm20021-p13udt4627lv) Units=km Length=0.00874954 bus1=p13udt4627lv.1.2 bus2=p13udm20021.1.2 switch=n enabled=y phases=2 Linecode=1P_UG_AL_1/0_Brenau_2

New Line.l(r:p13udt4628lv-p13ulv89709) Units=km Length=0.0128808 bus1=p13udt4628lv.1.2 bus2=p13ulv89709.1.2 switch=n enabled=y phases=2 Linecode=1P_UG_AL_1/0_Brenau_2

New Line.l(r:p13udm20023-p13ulv10230) Units=km Length=0.0119538 bus1=p13udm20023.1.2 bus2=p13ulv10230.1.2 switch=n enabled=y phases=2 Linecode=1P_UG_AL_1/0_Brenau_2

New Line.l(r:p13udm20023-p13udt4628lv) Units=km Length=0.0174991 bus1=p13udt4628lv.1.2 bus2=p13udm20023.1.2 switch=n enabled=y phases=2 Linecode=1P_UG_AL_1/0_Brenau_2

New Line.l(r:p13udm20024-p13ulv10231) Units=km Length=0.0130864 bus1=p13udm20024.1.2 bus2=p13ulv10231.1.2 switch=n enabled=y phases=2 Linecode=1P_OH_AL_2/0_Rucina_2

New Line.l(r:p13udm20024-p13ulv89719) Units=km Length=0.0152585 bus1=p13udm20024.1.2 bus2=p13ulv89719.1.2 switch=n enabled=y phases=2 Linecode=1P_OH_AL_2/0_Rucina_2

...