voltage-tiling/data/p13u_violations/p13uhs22_1247--p13udt4524/Loads.dss
New Load.load_p13ulv10012_1 conn=wye bus1=p13ulv10012.1 kV=0.12 Vminpu=0.8 Vmaxpu=1.2 model=1 kW=4.727241800768059 kvar=0.9743826308151174 Phases=1 yearly=res_kw_4871_pu

New Load.load_p13ulv10012_2 conn=wye bus1=p13ulv10012.2 kV=0.12 Vminpu=0.8 Vmaxpu=1.2 model=1 kW=4.727241800768059 kvar=0.9743826308151174 Phases=1 yearly=res_kw_4871_pu

New Load.load_p13ulv10013_1 conn=wye bus1=p13ulv10013.1 kV=0.12 Vminpu=0.8 Vmaxpu=1.2 model=1 kW=4.649996289265807 kvar=0.5625044506543897 Phases=1 yearly=res_kw_411_pu

New Load.load_p13ulv10013_2 conn=wye bus1=p13ulv10013.2 kV=0.12 Vminpu=0.8 Vmaxpu=1.2 model=1 kW=4.649996289265807 kvar=0.5625044506543897 Phases=1 yearly=res_kw_411_pu

New Load.load_p13ulv10016_1 conn=wye bus1=p13ulv10016.1 kV=0.12 Vminpu=0.8 Vmaxpu=1.2 model=1 kW=3.530107013857577 kvar=0.7493399099576905 Phases=1 yearly=res_kw_6317_pu

New Load.load_p13ulv10016_2 conn=wye bus1=p13ulv10016.2 kV=0.12 Vminpu=0.8 Vmaxpu=1.2 model=1 kW=3.530107013857577 kvar=0.7493399099576905 Phases=1 yearly=res_kw_6317_pu

New Load.load_p13ulv10017_1 conn=wye bus1=p13ulv10017.1 kV=0.12 Vminpu=0.8 Vmaxpu=1.2 model=1 kW=2.7621916140377394 kvar=1.020997998526336 Phases=1 yearly=res_kw_10231_pu

New Load.load_p13ulv10017_2 conn=wye bus1=p13ulv10017.2 kV=0.12 Vminpu=0.8 Vmaxpu=1.2 model=1 kW=2.7621916140377394 kvar=1.020997998526336 Phases=1 yearly=res_kw_10231_pu

New Load.load_p13ulv10018_1 conn=wye bus1=p13ulv10018.1 kV=0.12 Vminpu=0.8 Vmaxpu=1.2 model=1 kW=4.013992703229786 kvar=0.0951464885764126 Phases=1 yearly=res_kw_6166_pu

New Load.load_p13ulv10018_2 conn=wye bus1=p13ulv10018.2 kV=0.12 Vminpu=0.8 Vmaxpu=1.2 model=1 kW=4.013992703229786 kvar=0.0951464885764126 Phases=1 yearly=res_kw_6166_pu

New Load.load_p13ulv10019_1 conn=wye bus1=p13ulv10019.1 kV=0.12 Vminpu=0.8 Vmaxpu=1.2 model=1 kW=8.445320136712393 kvar=1.7057595747683787 Phases=1 yearly=res_kw_11483_pu

New Load.load_p13ulv10019_2 conn=wye bus1=p13ulv10019.2 kV=0.12 Vminpu=0.8 Vmaxpu=1.2 model=1 kW=8.445320136712393 kvar=1.7057595747683787 Phases=1 yearly=res_kw_11483_pu

New Load.load_p13ulv10038_1 conn=wye bus1=p13ulv10038.1 kV=0.12 Vminpu=0.8 Vmaxpu=1.2 model=1 kW=3.5127978636027604 kvar=0.9794275484237299 Phases=1 yearly=res_kw_12216_pu

New Load.load_p13ulv10038_2 conn=wye bus1=p13ulv10038.2 kV=0.12 Vminpu=0.8 Vmaxpu=1.2 model=1 kW=3.5127978636027604 kvar=0.9794275484237299 Phases=1 yearly=res_kw_12216_pu

New Load.load_p13ulv10039_1 conn=wye bus1=p13ulv10039.1 kV=0.12 Vminpu=0.8 Vmaxpu=1.2 model=1 kW=2.14720038589496 kvar=0.8148360695243748 Phases=1 yearly=res_kw_13015_pu

New Load.load_p13ulv10039_2 conn=wye bus1=p13ulv10039.2 kV=0.12 Vminpu=0.8 Vmaxpu=1.2 model=1 kW=2.14720038589496 kvar=0.8148360695243748 Phases=1 yearly=res_kw_13015_pu

New Load.load_p13ulv10040_1 conn=wye bus1=p13ulv10040.1 kV=0.12 Vminpu=0.8 Vmaxpu=1.2 model=1 kW=7.3466842017892535 kvar=1.9354145219734802 Phases=1 yearly=res_kw_8333_pu

New Load.load_p13ulv10040_2 conn=wye bus1=p13ulv10040.2 kV=0.12 Vminpu=0.8 Vmaxpu=1.2 model=1 kW=7.3466842017892535 kvar=1.9354145219734802 Phases=1 yearly=res_kw_8333_pu

New Load.load_p13ulv10041_1 conn=wye bus1=p13ulv10041.1 kV=0.12 Vminpu=0.8 Vmaxpu=1.2 model=1 kW=3.477079137618401 kvar=0.2506950417219762 Phases=1 yearly=res_kw_14630_pu

New Load.load_p13ulv10041_2 conn=wye bus1=p13ulv10041.2 kV=0.12 Vminpu=0.8 Vmaxpu=1.2 model=1 kW=3.477079137618401 kvar=0.2506950417219762 Phases=1 yearly=res_kw_14630_pu

New Load.load_p13ulv10042_1 conn=wye bus1=p13ulv10042.1 kV=0.12 Vminpu=0.8 Vmaxpu=1.2 model=1 kW=5.563631884037898 kvar=0.8694361070293551 Phases=1 yearly=res_kw_7222_pu

New Load.load_p13ulv10042_2 conn=wye bus1=p13ulv10042.2 kV=0.12 Vminpu=0.8 Vmaxpu=1.2 model=1 kW=5.563631884037898 kvar=0.8694361070293551 Phases=1 yearly=res_kw_7222_pu

New Load.load_p13ulv10043_1 conn=wye bus1=p13ulv10043.1 kV=0.12 Vminpu=0.8 Vmaxpu=1.2 model=1 kW=3.5821374260926486 kvar=0.18032929921833907 Phases=1 yearly=res_kw_11950_pu

New Load.load_p13ulv10043_2 conn=wye bus1=p13ulv10043.2 kV=0.12 Vminpu=0.8 Vmaxpu=1.2 model=1 kW=3.5821374260926486 kvar=0.18032929921833907 Phases=1 yearly=res_kw_11950_pu

New Load.load_p13ulv10044_1 conn=wye bus1=p13ulv10044.1 kV=0.12 Vminpu=0.8 Vmaxpu=1.2 model=1 kW=2.7096273035432676 kvar=0.9427200469116054 Phases=1 yearly=res_kw_804_pu

New Load.load_p13ulv10044_2 conn=wye bus1=p13ulv10044.2 kV=0.12 Vminpu=0.8 Vmaxpu=1.2 model=1 kW=2.7096273035432676 kvar=0.9427200469116054 Phases=1 yearly=res_kw_804_pu

New Load.load_p13ulv10045_1 conn=wye bus1=p13ulv10045.1 kV=0.12 Vminpu=0.8 Vmaxpu=1.2 model=1 kW=6.317139451053329 kvar=1.0686077089069603 Phases=1 yearly=res_kw_2437_pu

New Load.load_p13ulv10045_2 conn=wye bus1=p13ulv10045.2 kV=0.12 Vminpu=0.8 Vmaxpu=1.2 model=1 kW=6.317139451053329 kvar=1.0686077089069603 Phases=1 yearly=res_kw_2437_pu

New Load.load_p13ulv10046_1 conn=wye bus1=p13ulv10046.1 kV=0.12 Vminpu=0.8 Vmaxpu=1.2 model=1 kW=6.538058989147882 kvar=2.726482209785312 Phases=1 yearly=res_kw_5797_pu

...